/*--------------------------------*- C++ -*----------------------------------*\
  =========                 |
  \\      /  F ield         | OpenFOAM: The Open Source CFD Toolbox
   \\    /   O peration     | Website:  https://openfoam.org
    \\  /    A nd           | Version:  9
     \\/     M anipulation  |
\*---------------------------------------------------------------------------*/
FoamFile
{
    format      ascii;
    class       dictionary;
    object      fvSchemes;
}
// * * * * * * * * * * * * * * * * * * * * * * * * * * * * * * * * * * * * * //

ddtSchemes
{
    default CrankNicolson 0.33;
}

gradSchemes
{
   default  cellLimited Gauss linear 0.5;
    grad(U) cellLimited Gauss linear 1;
}

divSchemes
{
    default            none;
div(phi,h)          Gauss linearUpwind default;
    div(phi,U)          Gauss linearUpwindV grad(U);
 div(meshPhi,p)          Gauss linearUpwind default;


    turbulence          Gauss linearUpwind default;
    energy              Gauss linearUpwind default;

    div(phi,k)          $turbulence;
    div(phi,omega)      $turbulence;

    div(phi,e)          $energy;
    div(phi,K)          $energy;
    div(phi,Ekp)        $energy;
  div(phi,(p|rho))    $energy;

div((phi|interpolate(rho)),p) Gauss linear;

    div(((rho*nuEff)*dev2(T(grad(U))))) Gauss linear;
}

laplacianSchemes
{
    default         Gauss linear limited 0.5;
}

interpolationSchemes
{
    default         linear;
}

snGradSchemes
{
    default         limited 0.5;
}

wallDist
{
    method meshWave;
}















// *******************************************************//
