/*--------------------------------*- C++ -*----------------------------------*\
  =========                 |
  \\      /  F ield         | OpenFOAM: The Open Source CFD Toolbox
   \\    /   O peration     | Website:  https://openfoam.org
    \\  /    A nd           | Version:  8
     \\/     M anipulation  |
\*---------------------------------------------------------------------------*/
FoamFile
{
   
    format      ascii;
    class       dictionary;
    location    "system";
    object      fvSolution;
}
// * * * * * * * * * * * * * * * * * * * * * * * * * * * * * * * * * * * * * //


solvers
{
    p
    {
        solver          smoothSolver;
        smoother        symGaussSeidel;

        tolerance       1e-12; // prima era 1e-12
        relTol          0.01;
    }

    pFinal
    {
        $p;
        relTol          0;
    }

    "pcorr.*"
    {
        $p;
        tolerance       1e-4;
        relTol          0;
    }

    "(rho|e|U|h|k|epsilon|omega|eFinal|ecorr.*)"
    {
        solver          smoothSolver;
        smoother        symGaussSeidel;
        tolerance       1e-06;
        relTol          0.1;
    }

    "(rho|U|h|k|epsilon|omega)Final"
    {
        $U;
        relTol          0;
    }

}

PIMPLE
{
    momentumPredictor   yes;
    transonic           no;
    nOuterCorrectors    3;
    nCorrectors         1;
    nNonOrthogonalCorrectors 1;
}

relaxationFactors
{
    equations
    {
        "(U|h|k|epsilon|omega).*" 0.8;
    }
}


